
 ===================================================
  XFOIL Version 6.99
  Copyright (C) 2000   Mark Drela, Harold Youngren

  This software comes with ABSOLUTELY NO WARRANTY,
    subject to the GNU General Public License.

  Caveat computor
 ===================================================

 File  xfoil.def  not found

   QUIT    Exit program

  .OPER    Direct operating point(s)
  .MDES    Complex mapping design routine
  .QDES    Surface speed design routine
  .GDES    Geometry design routine

   SAVE f  Write airfoil to labeled coordinate file
   PSAV f  Write airfoil to plain coordinate file
   ISAV f  Write airfoil to ISES coordinate file
   MSAV f  Write airfoil to MSES coordinate file
   REVE    Reverse written-airfoil node ordering

   LOAD f  Read buffer airfoil from coordinate file
   NACA i  Set NACA 4,5-digit airfoil and buffer airfoil
   INTE    Set buffer airfoil by interpolating two airfoils
   NORM    Buffer airfoil normalization toggle
   XYCM rr Change CM reference location, currently  0.25000 0.00000

   BEND    Display structural properties of current airfoil

   PCOP    Set current-airfoil panel nodes directly from buffer airfoil points
   PANE    Set current-airfoil panel nodes ( 160 ) based on curvature
  .PPAR    Show/change paneling

  .PLOP    Plotting options

   WDEF f  Write  current-settings file
   RDEF f  Reread current-settings file
   NAME s  Specify new airfoil name
   NINC    Increment name version number

   Z       Zoom    | (available in all menus)
   U       Unzoom  | 

 XFOIL   c>   Max thickness =     0.150043  at x =   0.300
 Max camber    =     0.040000  at x =   0.202

 Buffer airfoil set using 331 points

 Blunt trailing edge.  Gap =  0.00315

 Paneling parameters used...
   Number of panel nodes       160
   Panel bunching parameter    1.000
   TE/LE panel density ratio   0.150
   Refined-area/LE panel density ratio    0.200
   Top    side refined area x/c limits  1.000 1.000
   Bottom side refined area x/c limits  1.000 1.000

 XFOIL   c>  
 XFOIL   c>  
 XFOIL   c>  
.OPERi   c>  
.OPERi   c>  
 Sonic Cp =    -16.31      Sonic Q/Qinf =     4.583


.OPERi   c>  
 M  =    0.2000
 Re =   1000000

.OPERv   c>  
 Polar  1 newly created for accumulation
 Airfoil archived with polar: NACA 4215                                       

Enter  polar save filename  OR  <return> for no file   s>  
 Polar save file will NOT be written

Enter  polar dump filename  OR  <return> for no file   s>  
 Polar dump file will NOT be written

 Polar accumulation enabled

.OPERva   c>   Calculating unit vorticity distributions ...
 Calculating wake trajectory ...
 Calculating source influence matrix ...

 Solving BL system ...

 Initializing BL ...
    side            1  ...
 MRCHUE: Inverse mode at  40     Hk =   4.715
 MRCHUE: Inverse mode at  41     Hk =   6.528
 MRCHUE: Inverse mode at  42     Hk =   8.358
 MRCHUE: Inverse mode at  43     Hk =   8.053
 MRCHUE: Inverse mode at  44     Hk =   2.500
 MRCHUE: Inverse mode at  85     Hk =   2.500
 MRCHUE: Inverse mode at  86     Hk =   2.500
 MRCHUE: Convergence failed at  87  side 1    Res =  0.4560E+01
    side            2  ...
 MRCHUE: Inverse mode at  67     Hk =   4.505
 MRCHUE: Inverse mode at  68     Hk =   5.290
 MRCHUE: Inverse mode at  69     Hk =   5.563
 MRCHUE: Inverse mode at  70     Hk =   2.500

 MRCHDU: Convergence failed at  87  side 1    Res =  0.3961E+01
 Side 1  free  transition at x/c =  0.2449   43
 Side 2  free  transition at x/c =  0.9171   69

   1   rms: 0.2788E+00   max: -.1770E+01   D at   75  2   RLX: 0.282
       a =  2.778      CL =  0.7588
      Cm = -0.0696     CD =  0.00622   =>   CDf =  0.00585    CDp =  0.00037

 MRCHDU: Convergence failed at  75  side 2    Res =  0.1203E+01
 Side 1  free  transition at x/c =  0.2463   43
 Side 2  free  transition at x/c =  0.9384   71
 idif Ue xi dudx           1  0.14372280      2.23338604E-03   64.351974    
 Uenew xinew           2  3.98910372E-03  6.19888306E-05

   2   rms: 0.1825E+00   max: -.1112E+01   C at   71  2   RLX: 0.450
       a =  2.778      CL =  0.7427
      Cm = -0.0665     CD =  0.00703   =>   CDf =  0.00584    CDp =  0.00120

 Side 1  free  transition at x/c =  0.2490   43
 Side 2  free  transition at x/c =  0.9584   73

   3   rms: 0.9777E-01   max: -.8218E+00   C at   73  2   RLX: 0.608
       a =  2.778      CL =  0.7236
      Cm = -0.0631     CD =  0.00807   =>   CDf =  0.00569    CDp =  0.00238

 Side 1  free  transition at x/c =  0.2559   43
 Side 2  free  transition at x/c =  0.9701   74

   4   rms: 0.3763E-01   max: 0.2631E+00   D at   76  2
       a =  2.778      CL =  0.7084
      Cm = -0.0603     CD =  0.00907   =>   CDf =  0.00559    CDp =  0.00348

 Side 1  free  transition at x/c =  0.2574   43
 Side 2  free  transition at x/c =  0.9786   74

   5   rms: 0.5362E-02   max: -.7572E-01   C at   74  2
       a =  2.778      CL =  0.7106
      Cm = -0.0608     CD =  0.00915   =>   CDf =  0.00555    CDp =  0.00361

 Side 1  free  transition at x/c =  0.2574   43
 Side 2  free  transition at x/c =  0.9776   74

   6   rms: 0.2429E-03   max: -.2857E-02   D at   75  2
       a =  2.778      CL =  0.7105
      Cm = -0.0608     CD =  0.00915   =>   CDf =  0.00555    CDp =  0.00360

 Side 1  free  transition at x/c =  0.2574   43
 Side 2  free  transition at x/c =  0.9777   74

   7   rms: 0.1034E-05   max: -.1120E-04   C at   74  2
       a =  2.778      CL =  0.7105
      Cm = -0.0608     CD =  0.00915   =>   CDf =  0.00555    CDp =  0.00360
 plradd ia,ip,cpol            1          85  0.15091941    

 Point added to stored polar  1
 Save file unspecified or not available
 Dump file unspecified or not available

.OPERva   c>  
.OPERva   c>  
.OPERva   c>  
        airfoil                    Re           Mach       Ncrit  XtripT  XtripB     file
       ------------------------  ------------  ----------  -----  ------  ------    -------------------
 >  1  NACA 4215                 1.000e6       0.200        9.00   1.000   1.000    

Enter polar output filename   s>  
.OPERva   c>  
 ==============================================================
 Polar  1
  
       XFOIL         Version 6.99
  
 Calculated polar for: NACA 4215                                       
  
 1 1 Reynolds number fixed          Mach number fixed         
  
 xtrf =   1.000 (top)        1.000 (bottom)  
 Mach =   0.200     Re =     1.000 e 6     Ncrit =   9.000
  
   alpha    CL        CD       CDp       CM     Top_Xtr  Bot_Xtr
  ------ -------- --------- --------- -------- -------- --------
   2.778   0.7105   0.00915   0.00360  -0.0608   0.2574   0.9777

.OPERva   c>  
 XFOIL   c>  